*Heading
**
** Job name: Surfalex_18p
**
** FEATURES
** Inhomogeneity factor: 0.9
** Material angle: 0 (deg)
** Groove angle: 60 (deg)
** Strain rate: 25 (/s)
** Law: Barlat 
**
 units : mm,N,kg
**
*Preprint, echo=NO, model=NO, history=NO, contact=NO 
**
** PART
*Part,name=MK_sample
**
*End part
**
**
** ASSEMBLY
*Assembly,name=Assembly
**
**
** INSTANCE
*Instance, name=MK_sample-1, part=MK_sample
**
**
*Node, nset=Sheet_nodes
1, 4.803848, 0.000000, 0.000000
2, 16.350853, 20.000000, 0.000000
3, 20.000000, 20.000000, 0.000000
4, 20.000000, 0.000000, 0.000000
5, 4.951886, 0.256410, 0.000000
6, 5.099925, 0.512821, 0.000000
7, 5.247963, 0.769231, 0.000000
8, 5.396002, 1.025641, 0.000000
9, 5.544040, 1.282051, 0.000000
10, 5.692079, 1.538462, 0.000000
11, 5.840117, 1.794872, 0.000000
12, 5.988156, 2.051282, 0.000000
13, 6.136194, 2.307692, 0.000000
14, 6.284233, 2.564103, 0.000000
15, 6.432271, 2.820513, 0.000000
16, 6.580310, 3.076923, 0.000000
17, 6.728348, 3.333333, 0.000000
18, 6.876387, 3.589744, 0.000000
19, 7.024426, 3.846154, 0.000000
20, 7.172464, 4.102564, 0.000000
** ... 38018 like lines cut
**
**
**
**
*Element, type=C3D8R, elset=Sheet_Elements
1, 2275, 1806, 1805, 2417, 7709, 7240, 7239, 7851
2, 1971, 1511, 1512, 1515, 7405, 6945, 6946, 6949
3, 1549, 1602, 242, 2617, 6983, 7036, 5676, 8051
4, 2569, 95, 3, 94, 8003, 5529, 5437, 5528
5, 1805, 2470, 221, 2417, 7239, 7904, 5655, 7851
6, 276, 2582, 1702, 1703, 5710, 8016, 7136, 7137
7, 265, 1767, 1551, 1766, 5699, 7201, 6985, 7200
8, 1771, 2492, 221, 2470, 7205, 7926, 5655, 7904
9, 2472, 222, 2583, 1701, 7906, 5656, 8017, 7135
10, 203, 254, 1572, 204, 5637, 5688, 7006, 5638
11, 254, 1589, 1557, 1572, 5688, 7023, 6991, 7006
12, 2169, 235, 1766, 1551, 7603, 5669, 7200, 6985
13, 1561, 2589, 214, 2026, 6995, 8023, 5648, 7460
14, 2260, 1649, 1326, 1151, 7694, 7083, 6760, 6585
15, 1767, 265, 1761, 1542, 7201, 5699, 7195, 6976
16, 2527, 242, 1602, 1571, 7961, 5676, 7036, 7005
17, 1957, 139, 138, 216, 7391, 5573, 5572, 5650
18, 261, 2497, 1575, 1574, 5695, 7931, 7009, 7008
19, 1519, 1521, 1987, 1536, 6953, 6955, 7421, 6970
20, 1771, 2500, 286, 2492, 7205, 7934, 5720, 7926
** ... 31756 like lines cut
**
**
*Orientation, name=Ori
 1.0,  -0.0,  0.0,  0.0,  1.0,  0.0
3, 0.
**
** SECTION
*Solid Section, elset=Sheet_Elements, orientation=Ori, material=Material-1
,
*End Instance
**
**
**Node_Set : Bottom_nodes 
*nset, nset=Bottom_nodes, instance=MK_sample-1
 1,  4,  162,  163,  164,  165,  166,  167,  168,  169,  170,  171,  172,  173,  174,  175
 176,  177,  178,  179,  180,  181,  182,  183,  184,  185,  186,  187,  188,  189,  190,  191
 192,  193,  194,  195,  196,  197,  198,  199,  200,  201,  202,  203,  204,  205,  206,  207
 208,  209,  210,  211,  212,  2640,  2641,  2720,  2721,  2722,  2723,  2724,  2725,  2726,  2727,  2728
 2729,  2730,  2731,  2732,  5277,  5356,  5435,  5438,  5596,  5597,  5598,  5599,  5600,  5601,  5602,  5603
 5604,  5605,  5606,  5607,  5608,  5609,  5610,  5611,  5612,  5613,  5614,  5615,  5616,  5617,  5618,  5619
 5620,  5621,  5622,  5623,  5624,  5625,  5626,  5627,  5628,  5629,  5630,  5631,  5632,  5633,  5634,  5635
 5636,  5637,  5638,  5639,  5640,  5641,  5642,  5643,  5644,  5645,  5646,  8074,  8075,  8154,  8155,  8156
 8157,  8158,  8159,  8160,  8161,  8162,  8163,  8164,  8165,  8166,  10711,  10790,  10869,  10872,  11030,  11031
 11032,  11033,  11034,  11035,  11036,  11037,  11038,  11039,  11040,  11041,  11042,  11043,  11044,  11045,  11046,  11047
 11048,  11049,  11050,  11051,  11052,  11053,  11054,  11055,  11056,  11057,  11058,  11059,  11060,  11061,  11062,  11063
 11064,  11065,  11066,  11067,  11068,  11069,  11070,  11071,  11072,  11073,  11074,  11075,  11076,  11077,  11078,  11079
 11080,  13508,  13509,  13588,  13589,  13590,  13591,  13592,  13593,  13594,  13595,  13596,  13597,  13598,  13599,  13600
 16145,  16224,  16303,  16306,  16464,  16465,  16466,  16467,  16468,  16469,  16470,  16471,  16472,  16473,  16474,  16475
 16476,  16477,  16478,  16479,  16480,  16481,  16482,  16483,  16484,  16485,  16486,  16487,  16488,  16489,  16490,  16491
 16492,  16493,  16494,  16495,  16496,  16497,  16498,  16499,  16500,  16501,  16502,  16503,  16504,  16505,  16506,  16507
 16508,  16509,  16510,  16511,  16512,  16513,  16514,  18942,  18943,  19022,  19023,  19024,  19025,  19026,  19027,  19028
 19029,  19030,  19031,  19032,  19033,  19034,  21579,  21658,  21737,  21740,  21898,  21899,  21900,  21901,  21902,  21903
 21904,  21905,  21906,  21907,  21908,  21909,  21910,  21911,  21912,  21913,  21914,  21915,  21916,  21917,  21918,  21919
 21920,  21921,  21922,  21923,  21924,  21925,  21926,  21927,  21928,  21929,  21930,  21931,  21932,  21933,  21934,  21935
** ... 11 like lines cut
**
**
**Node_Set : Upper_nodes 
*nset, nset=Upper_nodes, instance=MK_sample-1
 2,  3,  82,  83,  84,  85,  86,  87,  88,  89,  90,  91,  92,  93,  94,  2639
 2642,  2800,  2801,  2802,  2803,  2804,  2805,  2806,  2807,  2808,  2809,  2810,  2811,  2812,  2813,  2814
 2815,  2816,  2817,  2818,  2819,  2820,  2821,  2822,  2823,  2824,  2825,  2826,  2827,  2828,  2829,  2830
 2831,  2832,  2833,  2834,  2835,  2836,  2837,  2838,  2839,  2840,  2841,  2842,  2843,  2844,  2845,  2846
 2847,  2848,  2849,  2850,  5355,  5434,  5436,  5437,  5516,  5517,  5518,  5519,  5520,  5521,  5522,  5523
 5524,  5525,  5526,  5527,  5528,  8073,  8076,  8234,  8235,  8236,  8237,  8238,  8239,  8240,  8241,  8242
 8243,  8244,  8245,  8246,  8247,  8248,  8249,  8250,  8251,  8252,  8253,  8254,  8255,  8256,  8257,  8258
 8259,  8260,  8261,  8262,  8263,  8264,  8265,  8266,  8267,  8268,  8269,  8270,  8271,  8272,  8273,  8274
 8275,  8276,  8277,  8278,  8279,  8280,  8281,  8282,  8283,  8284,  10789,  10868,  10870,  10871,  10950,  10951
 10952,  10953,  10954,  10955,  10956,  10957,  10958,  10959,  10960,  10961,  10962,  13507,  13510,  13668,  13669,  13670
 13671,  13672,  13673,  13674,  13675,  13676,  13677,  13678,  13679,  13680,  13681,  13682,  13683,  13684,  13685,  13686
 13687,  13688,  13689,  13690,  13691,  13692,  13693,  13694,  13695,  13696,  13697,  13698,  13699,  13700,  13701,  13702
 13703,  13704,  13705,  13706,  13707,  13708,  13709,  13710,  13711,  13712,  13713,  13714,  13715,  13716,  13717,  13718
 16223,  16302,  16304,  16305,  16384,  16385,  16386,  16387,  16388,  16389,  16390,  16391,  16392,  16393,  16394,  16395
 16396,  18941,  18944,  19102,  19103,  19104,  19105,  19106,  19107,  19108,  19109,  19110,  19111,  19112,  19113,  19114
 19115,  19116,  19117,  19118,  19119,  19120,  19121,  19122,  19123,  19124,  19125,  19126,  19127,  19128,  19129,  19130
 19131,  19132,  19133,  19134,  19135,  19136,  19137,  19138,  19139,  19140,  19141,  19142,  19143,  19144,  19145,  19146
 19147,  19148,  19149,  19150,  19151,  19152,  21657,  21736,  21738,  21739,  21818,  21819,  21820,  21821,  21822,  21823
 21824,  21825,  21826,  21827,  21828,  21829,  21830,  24375,  24378,  24536,  24537,  24538,  24539,  24540,  24541,  24542
 24543,  24544,  24545,  24546,  24547,  24548,  24549,  24550,  24551,  24552,  24553,  24554,  24555,  24556,  24557,  24558
** ... 11 like lines cut
**
**
**Node_Set : Left_nodes 
*nset, nset=Left_nodes, instance=MK_sample-1
 2641,  2642,  2733,  2734,  2735,  2736,  2737,  2738,  2739,  2740,  2741,  2742,  2743,  2744,  2745,  2746
 2747,  2748,  2749,  2750,  2751,  2752,  2753,  2754,  2755,  2756,  2757,  2758,  2759,  2760,  2761,  2762
 2763,  2764,  2765,  2766,  2767,  2768,  2769,  2770,  2771,  2772,  2773,  2774,  2775,  2776,  2777,  2778
 2779,  2780,  2781,  2782,  2783,  2784,  2785,  2786,  2787,  2788,  2789,  2790,  2791,  2792,  2793,  2794
 2795,  2796,  2797,  2798,  2799,  8075,  8076,  8167,  8168,  8169,  8170,  8171,  8172,  8173,  8174,  8175
 8176,  8177,  8178,  8179,  8180,  8181,  8182,  8183,  8184,  8185,  8186,  8187,  8188,  8189,  8190,  8191
 8192,  8193,  8194,  8195,  8196,  8197,  8198,  8199,  8200,  8201,  8202,  8203,  8204,  8205,  8206,  8207
 8208,  8209,  8210,  8211,  8212,  8213,  8214,  8215,  8216,  8217,  8218,  8219,  8220,  8221,  8222,  8223
 8224,  8225,  8226,  8227,  8228,  8229,  8230,  8231,  8232,  8233,  13509,  13510,  13601,  13602,  13603,  13604
 13605,  13606,  13607,  13608,  13609,  13610,  13611,  13612,  13613,  13614,  13615,  13616,  13617,  13618,  13619,  13620
 13621,  13622,  13623,  13624,  13625,  13626,  13627,  13628,  13629,  13630,  13631,  13632,  13633,  13634,  13635,  13636
 13637,  13638,  13639,  13640,  13641,  13642,  13643,  13644,  13645,  13646,  13647,  13648,  13649,  13650,  13651,  13652
 13653,  13654,  13655,  13656,  13657,  13658,  13659,  13660,  13661,  13662,  13663,  13664,  13665,  13666,  13667,  18943
 18944,  19035,  19036,  19037,  19038,  19039,  19040,  19041,  19042,  19043,  19044,  19045,  19046,  19047,  19048,  19049
 19050,  19051,  19052,  19053,  19054,  19055,  19056,  19057,  19058,  19059,  19060,  19061,  19062,  19063,  19064,  19065
 19066,  19067,  19068,  19069,  19070,  19071,  19072,  19073,  19074,  19075,  19076,  19077,  19078,  19079,  19080,  19081
 19082,  19083,  19084,  19085,  19086,  19087,  19088,  19089,  19090,  19091,  19092,  19093,  19094,  19095,  19096,  19097
 19098,  19099,  19100,  19101,  24377,  24378,  24469,  24470,  24471,  24472,  24473,  24474,  24475,  24476,  24477,  24478
 24479,  24480,  24481,  24482,  24483,  24484,  24485,  24486,  24487,  24488,  24489,  24490,  24491,  24492,  24493,  24494
 24495,  24496,  24497,  24498,  24499,  24500,  24501,  24502,  24503,  24504,  24505,  24506,  24507,  24508,  24509,  24510
** ... 11 like lines cut
**
**
**Node_Set : Right_nodes 
*nset, nset=Right_nodes, instance=MK_sample-1
 3,  4,  95,  96,  97,  98,  99,  100,  101,  102,  103,  104,  105,  106,  107,  108
 109,  110,  111,  112,  113,  114,  115,  116,  117,  118,  119,  120,  121,  122,  123,  124
 125,  126,  127,  128,  129,  130,  131,  132,  133,  134,  135,  136,  137,  138,  139,  140
 141,  142,  143,  144,  145,  146,  147,  148,  149,  150,  151,  152,  153,  154,  155,  156
 157,  158,  159,  160,  161,  5437,  5438,  5529,  5530,  5531,  5532,  5533,  5534,  5535,  5536,  5537
 5538,  5539,  5540,  5541,  5542,  5543,  5544,  5545,  5546,  5547,  5548,  5549,  5550,  5551,  5552,  5553
 5554,  5555,  5556,  5557,  5558,  5559,  5560,  5561,  5562,  5563,  5564,  5565,  5566,  5567,  5568,  5569
 5570,  5571,  5572,  5573,  5574,  5575,  5576,  5577,  5578,  5579,  5580,  5581,  5582,  5583,  5584,  5585
 5586,  5587,  5588,  5589,  5590,  5591,  5592,  5593,  5594,  5595,  10871,  10872,  10963,  10964,  10965,  10966
 10967,  10968,  10969,  10970,  10971,  10972,  10973,  10974,  10975,  10976,  10977,  10978,  10979,  10980,  10981,  10982
 10983,  10984,  10985,  10986,  10987,  10988,  10989,  10990,  10991,  10992,  10993,  10994,  10995,  10996,  10997,  10998
 10999,  11000,  11001,  11002,  11003,  11004,  11005,  11006,  11007,  11008,  11009,  11010,  11011,  11012,  11013,  11014
 11015,  11016,  11017,  11018,  11019,  11020,  11021,  11022,  11023,  11024,  11025,  11026,  11027,  11028,  11029,  16305
 16306,  16397,  16398,  16399,  16400,  16401,  16402,  16403,  16404,  16405,  16406,  16407,  16408,  16409,  16410,  16411
 16412,  16413,  16414,  16415,  16416,  16417,  16418,  16419,  16420,  16421,  16422,  16423,  16424,  16425,  16426,  16427
 16428,  16429,  16430,  16431,  16432,  16433,  16434,  16435,  16436,  16437,  16438,  16439,  16440,  16441,  16442,  16443
 16444,  16445,  16446,  16447,  16448,  16449,  16450,  16451,  16452,  16453,  16454,  16455,  16456,  16457,  16458,  16459
 16460,  16461,  16462,  16463,  21739,  21740,  21831,  21832,  21833,  21834,  21835,  21836,  21837,  21838,  21839,  21840
 21841,  21842,  21843,  21844,  21845,  21846,  21847,  21848,  21849,  21850,  21851,  21852,  21853,  21854,  21855,  21856
 21857,  21858,  21859,  21860,  21861,  21862,  21863,  21864,  21865,  21866,  21867,  21868,  21869,  21870,  21871,  21872
** ... 11 like lines cut
**
**
**Element_Set : Middle_element 
*elset, elset=Middle_element, instance=MK_sample-1
5179
**
**
**Element_Set : Corner_element 
*elset, elset=Corner_element, instance=MK_sample-1
1
**
**
*End Assembly
**
**
*Amplitude, name=Amp-1
 0.0,  0.0,  0.0004,  0.2010033,  0.0008,  0.4040268,  0.0012,  0.6090907
 0.0016,  0.8162155,  0.002,  1.0254219,  0.0024,  1.2367309,  0.0028,  1.4501636
 0.0032,  1.6657414,  0.0036,  1.8834857,  0.004,  2.1034184,  0.0044,  2.3255614
 0.0048,  2.549937,  0.0052,  2.7765677,  0.0056,  3.005476,  0.006,  3.2366849
 0.0064,  3.4702174,  0.0068,  3.706097,  0.0072,  3.9443473,  0.0076,  4.184992
 0.008,  4.4280552,  0.0084,  4.6735612,  0.0088,  4.9215346,  0.0092,  5.1720002
 0.0096,  5.424983,  0.01,  5.6805083,  0.0104,  5.9386017,  0.0108,  6.199289
 0.0112,  6.4625962,  0.0116,  6.7285498,  0.012,  6.9971762,  0.0124,  7.2685023
 0.0128,  7.5425553,  0.0132,  7.8193626,  0.0136,  8.0989518,  0.014,  8.381351
 0.0144,  8.6665883,  0.0148,  8.9546923,  0.0152,  9.2456918,  0.0156,  9.5396159
 0.016,  9.836494,  0.0164,  10.1363557,  0.0168,  10.4392311,  0.0172,  10.7451505
 0.0176,  11.0541444,  0.018,  11.3662437,  0.0184,  11.6814797,  0.0188,  11.9998839
 0.0192,  12.321488,  0.0196,  12.6463244,  0.02,  12.9744254,  0.0204,  13.3058239
 0.0208,  13.640553,  0.0212,  13.9786462,  0.0216,  14.3201372,  0.022,  14.6650604
 0.0224,  15.01345,  0.0228,  15.365341,  0.0232,  15.7207686,  0.0236,  16.0797683
 0.024,  16.442376,  0.0244,  16.808628,  0.0248,  17.1785608,  0.0252,  17.5522116
 0.0256,  17.9296176,  0.026,  18.3108166,  0.0264,  18.6958467,  0.0268,  19.0847464
 0.0272,  19.4775546,  0.0276,  19.8743107,  0.028,  20.2750541,  0.0284,  20.6798252
 0.0288,  21.0886642,  0.0292,  21.5016121,  0.0296,  21.9187103,  0.03,  22.3400003
 0.0304,  22.7655244,  0.0308,  23.1953251,  0.0312,  23.6294453,  0.0316,  24.0679285
** ... 81 like lines cut
**
**
** ---------------------------------------------------------------------
** MATERIALS
**
*Material, name=Material-1
*Density
 2.700e-09
**
*Elastic
 70000.00, 0.3300
**
*Plastic
 60.0,  0.0
 81.9177,  0.00795
 101.132,  0.0159
 117.448,  0.02385
 131.611,  0.03179
 144.075,  0.03974
 155.16,  0.04769
 165.103,  0.05564
 174.092,  0.06359
 182.276,  0.07154
 189.771,  0.07949
 196.675,  0.08744
 203.066,  0.09538
 209.012,  0.10333
 214.567,  0.11128
 219.777,  0.11923
 224.682,  0.12718
 229.313,  0.13513
 233.695,  0.14308
 237.849,  0.15103
** ... 21 like lines cut
**
*potential, type=barlat, power=5
0.708700, 0.907400, 1.137600, 1.152600 ,1.485100, 1.163700, 0.303900, 0.673100
0.578000, 0.964600, 1.018600, 1.426900 ,1.196800, 0.594100, 0.677200, 0.656700
0.249700, 0.411250
**
** ---------------------------------------------------------------------
** STEP
**
*Step, name=Step-1, nlgeom=YES
*Dynamic, Explicit
, 0.018, , 1e-05
*Bulk Viscosity
 0.100, 0.100
**
**
** BOUNDARY CONDITIONS
**
** Name: BC-1 (Left) Type: Displacement/Rotation
*Boundary, amplitude=Amp-1
Left_nodes, 1, 1, -0.50000
** Name: BC-1 (Right) Type: Displacement/Rotation
*Boundary, amplitude=Amp-1
Right_nodes, 1, 1, 0.50000
** Name: BC-1 (Up) Type: Displacement/Rotation
*Boundary, amplitude=Amp-1
Upper_nodes, 2, 2, 0.50000
** Name: BC-1 (Bottom) Type: Displacement/Rotation
*Boundary, amplitude=Amp-1
Bottom_nodes, 2, 2, -0.50000
**
**
** OUTPUT REQUESTS
**
*Restart, write, number interval=1, time marks=NO
**
*Output, field
*Node Output
COORD, U, V
*Element Output, directions=YES
E, LE, PE, PEEQ, PEMAG, S, COORD
**
*Output, history, variable=PRESELECT
**
*End Step